__1m4n_A_rec_1m7y_ppg_lig_min.pdb
 OpenBabel10171920003D

 26 26  0  0  0  0  0  0  0  0999 V2000
   23.4030    2.1060   18.7240 N   0  0  0  0  0  0  0  0  0  0  0  0
   22.1480    1.9230   18.1300 C   0  0  0  0  0  0  0  0  0  0  0  0
   21.9980    2.5130   16.7660 C   0  0  0  0  0  0  0  0  0  0  0  0
   21.1620    1.2070   18.8680 C   0  0  0  0  0  0  0  0  0  0  0  0
   19.9800    1.0210   18.3310 O   0  0  0  0  0  0  0  0  0  0  0  0
   21.5270    0.7100   20.2120 C   0  0  0  0  0  0  0  0  0  0  0  0
   22.8910    0.9760   20.7200 C   0  0  0  0  0  0  0  0  0  0  0  0
   23.7910    1.6670   19.9580 C   0  0  0  0  0  0  0  0  0  0  0  0
   20.4920   -0.0940   21.0900 C   0  0  0  0  0  0  0  0  0  0  0  0
   19.1630   -0.0660   20.5380 N   0  0  0  0  0  0  0  0  0  0  0  0
   18.0080   -0.1760   21.2220 C   0  0  0  0  0  0  0  0  0  0  0  0
   16.8440   -0.2200   20.4300 C   0  0  0  0  0  0  0  0  0  0  0  0
   16.9040    0.2580   19.2310 O   0  0  0  0  0  0  0  0  0  0  0  0
   15.7200   -0.7230   20.8870 O   0  0  0  0  0  0  0  0  0  0  0  0
   18.0030   -0.1940   22.6760 C   0  0  0  0  0  0  0  0  0  0  0  0
   18.1560   -1.3040   23.4000 C   0  0  0  0  0  0  0  0  0  0  0  0
   18.1810   -1.1110   24.8370 O   0  0  0  0  0  0  0  0  0  0  0  0
   16.8480   -1.0780   25.3800 C   0  0  0  0  0  0  0  0  0  0  0  0
   16.7410   -1.9660   26.6260 C   0  0  0  0  0  0  0  0  0  0  0  0
   16.0970   -3.2280   26.2650 N   0  0  0  0  0  0  0  0  0  0  0  0
   23.2570    0.4510   22.1090 C   0  0  0  0  0  0  0  0  0  0  0  0
   23.7530   -0.8720   21.9800 O   0  0  0  0  0  0  0  0  0  0  0  0
   24.4940   -1.6320   23.2230 P   0  0  0  0  0  0  0  0  0  0  0  0
   25.5980   -2.4090   22.5860 O   0  0  0  0  0  0  0  0  0  0  0  0
   23.5320   -2.5270   23.8470 O   0  0  0  0  0  0  0  0  0  0  0  0
   24.9680   -0.6180   24.1860 O   0  0  0  0  0  0  0  0  0  0  0  0
  1  2  2  0  0  0  0
  1  8  1  0  0  0  0
  2  3  1  0  0  0  0
  2  4  1  0  0  0  0
  4  5  1  0  0  0  0
  4  6  2  0  0  0  0
  6  7  1  0  0  0  0
  6  9  1  0  0  0  0
  7  8  2  0  0  0  0
  7 21  1  0  0  0  0
  9 10  1  0  0  0  0
 10 11  2  0  0  0  0
 11 12  1  0  0  0  0
 11 15  1  0  0  0  0
 12 13  2  0  0  0  0
 12 14  1  0  0  0  0
 15 16  2  0  0  0  0
 16 17  1  0  0  0  0
 17 18  1  0  0  0  0
 18 19  1  0  0  0  0
 19 20  1  0  0  0  0
 21 22  1  0  0  0  0
 22 23  1  0  0  0  0
 23 24  2  0  0  0  0
 23 25  1  0  0  0  0
 23 26  1  0  0  0  0
M  END
>  <COMPND>
    UNNAMED

>  <AUTHOR>
    GENERATED BY OPEN BABEL 2.4.90

>  <MASTER>
        0    0    0    0    0    0    0    0   26    0   26    0

