__1m7y_A_rec_1m7y_mrd_lig_min.pdb
 OpenBabel10171920003D

  8  7  0  0  1  0  0  0  0  0999 V2000
   20.2790    0.2720   25.6870 C   0  0  0  0  0  0  0  0  0  0  0  0
   20.1660   -0.0330   27.1660 C   0  0  0  0  0  0  0  0  0  0  0  0
   19.2640   -1.1450   27.2770 O   0  0  0  0  0  0  0  0  0  0  0  0
   21.4190   -0.3850   27.7050 C   0  0  0  0  0  0  0  0  0  0  0  0
   19.5840    1.1280   28.0070 C   0  0  0  0  0  0  0  0  0  0  0  0
   18.0930    1.4230   27.8390 C   0  0  2  0  0  0  0  0  0  0  0  0
   17.8960    2.6330   27.1470 O   0  0  0  0  0  0  0  0  0  0  0  0
   17.4620    1.5750   29.1410 C   0  0  0  0  0  0  0  0  0  0  0  0
  1  2  1  0  0  0  0
  2  3  1  0  0  0  0
  2  4  1  0  0  0  0
  2  5  1  0  0  0  0
  5  6  1  0  0  0  0
  6  7  1  0  0  0  0
  6  8  1  1  0  0  0
M  END
>  <COMPND>
    UNNAMED

>  <AUTHOR>
    GENERATED BY OPEN BABEL 2.4.90

>  <MASTER>
        0    0    0    0    0    0    0    0    8    0    8    0

