__1j0c_A_rec_1j0c_plp_lig_min.pdb
 OpenBabel10171920003D

 15 15  0  0  0  0  0  0  0  0999 V2000
   29.7250  126.9510   17.0390 N   0  0  0  0  0  0  0  0  0  0  0  0
   29.1330  127.5010   18.1720 C   0  0  0  0  0  0  0  0  0  0  0  0
   27.9010  126.8040   18.7690 C   0  0  0  0  0  0  0  0  0  0  0  0
   29.6740  128.6650   18.7320 C   0  0  0  0  0  0  0  0  0  0  0  0
   29.1050  129.2290   19.8560 O   0  0  0  0  0  0  0  0  0  0  0  0
   30.8230  129.2540   18.1190 C   0  0  0  0  0  0  0  0  0  0  0  0
   31.4150  130.5420   18.7440 C   0  0  0  0  0  0  0  0  0  0  0  0
   31.3910  128.6400   16.9480 C   0  0  0  0  0  0  0  0  0  0  0  0
   30.8260  127.5000   16.4370 C   0  0  0  0  0  0  0  0  0  0  0  0
   32.6000  129.1630   16.2110 C   0  0  0  0  0  0  0  0  0  0  0  0
   33.8460  129.1850   16.8360 O   0  0  0  0  0  0  0  0  0  0  0  0
   34.8310  130.3850   16.6310 P   0  0  0  0  0  0  0  0  0  0  0  0
   35.5630  130.1190   15.3800 O   0  0  0  0  0  0  0  0  0  0  0  0
   35.7160  130.3010   17.9370 O   0  0  0  0  0  0  0  0  0  0  0  0
   34.0300  131.6000   16.7020 O   0  0  0  0  0  0  0  0  0  0  0  0
  1  9  2  0  0  0  0
  1  2  1  0  0  0  0
  2  3  1  0  0  0  0
  2  4  2  0  0  0  0
  4  6  1  0  0  0  0
  4  5  1  0  0  0  0
  6  8  2  0  0  0  0
  6  7  1  0  0  0  0
  8  9  1  0  0  0  0
  8 10  1  0  0  0  0
 10 11  1  0  0  0  0
 11 12  1  0  0  0  0
 12 13  2  0  0  0  0
 12 15  1  0  0  0  0
 12 14  1  0  0  0  0
M  END
>  <COMPND>
    UNNAMED

>  <AUTHOR>
    GENERATED BY OPEN BABEL 2.4.90

>  <MASTER>
        0    0    0    0    0    0    0    0   15    0   15    0

