__1j0c_A_rec_1j0c_plp_lig_docked.pdb
 OpenBabel10171920003D

 15 15  0  0  0  0  0  0  0  0999 V2000
   29.7170  127.0150   17.0230 N   0  0  0  0  0  0  0  0  0  0  0  0
   29.1180  127.5500   18.1590 C   0  0  0  0  0  0  0  0  0  0  0  0
   27.8670  126.8600   18.7250 C   0  0  0  0  0  0  0  0  0  0  0  0
   29.6680  128.6950   18.7500 C   0  0  0  0  0  0  0  0  0  0  0  0
   29.0920  129.2440   19.8780 O   0  0  0  0  0  0  0  0  0  0  0  0
   30.8330  129.2790   18.1650 C   0  0  0  0  0  0  0  0  0  0  0  0
   31.4360  130.5450   18.8250 C   0  0  0  0  0  0  0  0  0  0  0  0
   31.4090  128.6810   16.9890 C   0  0  0  0  0  0  0  0  0  0  0  0
   30.8350  127.5590   16.4480 C   0  0  0  0  0  0  0  0  0  0  0  0
   32.6360  129.2010   16.2800 C   0  0  0  0  0  0  0  0  0  0  0  0
   33.8730  129.1930   16.9230 O   0  0  0  0  0  0  0  0  0  0  0  0
   34.8860  130.3720   16.7370 P   0  0  0  0  0  0  0  0  0  0  0  0
   35.7740  130.3520   17.9130 O   0  0  0  0  0  0  0  0  0  0  0  0
   33.9180  131.6190   16.6690 O   0  0  0  0  0  0  0  0  0  0  0  0
   35.4950  130.1970   15.4240 O   0  0  0  0  0  0  0  0  0  0  0  0
  1  9  2  0  0  0  0
  1  2  1  0  0  0  0
  2  3  1  0  0  0  0
  2  4  2  0  0  0  0
  4  6  1  0  0  0  0
  4  5  1  0  0  0  0
  6  8  2  0  0  0  0
  6  7  1  0  0  0  0
  8  9  1  0  0  0  0
  8 10  1  0  0  0  0
 10 11  1  0  0  0  0
 11 12  1  0  0  0  0
 12 13  2  0  0  0  0
 12 15  1  0  0  0  0
 12 14  1  0  0  0  0
M  END
>  <MODEL>
       2

>  <COMPND>
    UNNAMED

>  <AUTHOR>
    GENERATED BY OPEN BABEL 2.4.90

>  <MASTER>
        0    0    0    0    0    0    0    0   15    0   15    0

