__1j0d_A_rec_1j0c_plp_lig_docked.pdb
 OpenBabel10171920003D

 15 15  0  0  0  0  0  0  0  0999 V2000
   29.8720  126.9670   16.7450 N   0  0  0  0  0  0  0  0  0  0  0  0
   29.1600  127.4080   17.8550 C   0  0  0  0  0  0  0  0  0  0  0  0
   27.9540  126.5840   18.3310 C   0  0  0  0  0  0  0  0  0  0  0  0
   29.5610  128.5830   18.5060 C   0  0  0  0  0  0  0  0  0  0  0  0
   28.8720  129.0390   19.6100 O   0  0  0  0  0  0  0  0  0  0  0  0
   30.6950  129.2940   18.0050 C   0  0  0  0  0  0  0  0  0  0  0  0
   31.1320  130.5920   18.7280 C   0  0  0  0  0  0  0  0  0  0  0  0
   31.3910  128.7890   16.8500 C   0  0  0  0  0  0  0  0  0  0  0  0
   30.9620  127.6340   16.2490 C   0  0  0  0  0  0  0  0  0  0  0  0
   32.5990  129.4460   16.2270 C   0  0  0  0  0  0  0  0  0  0  0  0
   33.8430  129.3620   16.8520 O   0  0  0  0  0  0  0  0  0  0  0  0
   34.8160  130.5890   16.8790 P   0  0  0  0  0  0  0  0  0  0  0  0
   35.8630  130.2730   17.8660 O   0  0  0  0  0  0  0  0  0  0  0  0
   33.8440  131.7600   17.3080 O   0  0  0  0  0  0  0  0  0  0  0  0
   35.2300  130.8250   15.5020 O   0  0  0  0  0  0  0  0  0  0  0  0
  1  9  2  0  0  0  0
  1  2  1  0  0  0  0
  2  3  1  0  0  0  0
  2  4  2  0  0  0  0
  4  6  1  0  0  0  0
  4  5  1  0  0  0  0
  6  8  2  0  0  0  0
  6  7  1  0  0  0  0
  8  9  1  0  0  0  0
  8 10  1  0  0  0  0
 10 11  1  0  0  0  0
 11 12  1  0  0  0  0
 12 13  2  0  0  0  0
 12 15  1  0  0  0  0
 12 14  1  0  0  0  0
M  END
>  <MODEL>
       1

>  <COMPND>
    UNNAMED

>  <AUTHOR>
    GENERATED BY OPEN BABEL 2.4.90

>  <MASTER>
        0    0    0    0    0    0    0    0   15    0   15    0

