__1j0d_A_rec_1j0c_plp_lig_min.pdb
 OpenBabel10171920003D

 15 15  0  0  0  0  0  0  0  0999 V2000
   29.8580  126.9560   16.7870 N   0  0  0  0  0  0  0  0  0  0  0  0
   29.1990  127.4620   17.9030 C   0  0  0  0  0  0  0  0  0  0  0  0
   27.9910  126.6910   18.4560 C   0  0  0  0  0  0  0  0  0  0  0  0
   29.6540  128.6510   18.4890 C   0  0  0  0  0  0  0  0  0  0  0  0
   29.0170  129.1720   19.5970 O   0  0  0  0  0  0  0  0  0  0  0  0
   30.7860  129.3100   17.9170 C   0  0  0  0  0  0  0  0  0  0  0  0
   31.2820  130.6250   18.5690 C   0  0  0  0  0  0  0  0  0  0  0  0
   31.4260  128.7390   16.7610 C   0  0  0  0  0  0  0  0  0  0  0  0
   30.9450  127.5720   16.2250 C   0  0  0  0  0  0  0  0  0  0  0  0
   32.6260  129.3370   16.0670 C   0  0  0  0  0  0  0  0  0  0  0  0
   33.8920  129.2340   16.6430 O   0  0  0  0  0  0  0  0  0  0  0  0
   34.9120  130.4190   16.5640 P   0  0  0  0  0  0  0  0  0  0  0  0
   35.6570  130.2490   15.3050 O   0  0  0  0  0  0  0  0  0  0  0  0
   35.7730  130.1880   17.8700 O   0  0  0  0  0  0  0  0  0  0  0  0
   34.1440  131.6450   16.7380 O   0  0  0  0  0  0  0  0  0  0  0  0
  1  9  2  0  0  0  0
  1  2  1  0  0  0  0
  2  3  1  0  0  0  0
  2  4  2  0  0  0  0
  4  6  1  0  0  0  0
  4  5  1  0  0  0  0
  6  8  2  0  0  0  0
  6  7  1  0  0  0  0
  8  9  1  0  0  0  0
  8 10  1  0  0  0  0
 10 11  1  0  0  0  0
 11 12  1  0  0  0  0
 12 13  2  0  0  0  0
 12 15  1  0  0  0  0
 12 14  1  0  0  0  0
M  END
>  <COMPND>
    UNNAMED

>  <AUTHOR>
    GENERATED BY OPEN BABEL 2.4.90

>  <MASTER>
        0    0    0    0    0    0    0    0   15    0   15    0

