__1yfw_A_rec_1yfy_3ha_lig_docked.pdb
 OpenBabel10171920033D

 11 11  0  0  0  0  0  0  0  0999 V2000
    8.9200   25.5990    5.9240 C   0  0  0  0  0  0  0  0  0  0  0  0
    9.7290   26.5050    5.2450 C   0  0  0  0  0  0  0  0  0  0  0  0
   11.0920   26.2620    5.1110 C   0  0  0  0  0  0  0  0  0  0  0  0
   11.6490   25.1100    5.6590 C   0  0  0  0  0  0  0  0  0  0  0  0
   10.8410   24.2030    6.3360 C   0  0  0  0  0  0  0  0  0  0  0  0
   11.3900   23.0790    6.8720 O   0  0  0  0  0  0  0  0  0  0  0  0
    9.4770   24.4450    6.4680 C   0  0  0  0  0  0  0  0  0  0  0  0
    8.7110   23.5610    7.1000 N   0  0  0  0  0  0  0  0  0  0  0  0
    6.7530   26.2960    5.1520 O   0  0  0  0  0  0  0  0  0  0  0  0
    7.4300   25.9070    6.1030 C   0  0  0  0  0  0  0  0  0  0  0  0
    6.8930   25.7750    7.2010 O   0  0  0  0  0  0  0  0  0  0  0  0
  1  2  2  0  0  0  0
  1  7  1  0  0  0  0
  1 10  1  0  0  0  0
  2  3  1  0  0  0  0
  3  4  2  0  0  0  0
  4  5  1  0  0  0  0
  5  7  2  0  0  0  0
  5  6  1  0  0  0  0
  7  8  1  0  0  0  0
  9 10  2  0  0  0  0
 10 11  1  0  0  0  0
M  END
>  <MODEL>
       2

>  <COMPND>
    UNNAMED

>  <AUTHOR>
    GENERATED BY OPEN BABEL 2.4.90

>  <MASTER>
        0    0    0    0    0    0    0    0   11    0   11    0

