__1yfw_A_rec_1yfw_4aa_lig_min.pdb
 OpenBabel10171920043D

 12 12  0  0  0  0  0  0  0  0999 V2000
    9.0930   25.6840    5.5640 C   0  0  0  0  0  0  0  0  0  0  0  0
   10.0860   26.4970    5.0240 C   0  0  0  0  0  0  0  0  0  0  0  0
   11.4270   26.1370    5.1300 C   0  0  0  0  0  0  0  0  0  0  0  0
   11.7790   24.9550    5.7780 C   0  0  0  0  0  0  0  0  0  0  0  0
   13.4430   24.5050    5.9350 Cl  0  0  0  0  0  0  0  0  0  0  0  0
   10.7890   24.1390    6.3150 C   0  0  0  0  0  0  0  0  0  0  0  0
   11.1370   22.9690    6.9160 O   0  0  0  0  0  0  0  0  0  0  0  0
    9.4500   24.5030    6.2130 C   0  0  0  0  0  0  0  0  0  0  0  0
    8.5140   23.7240    6.7490 N   0  0  0  0  0  0  0  0  0  0  0  0
    7.1110   26.2730    4.3350 O   0  0  0  0  0  0  0  0  0  0  0  0
    7.6200   26.0840    5.4380 C   0  0  0  0  0  0  0  0  0  0  0  0
    6.9260   26.2260    6.4440 O   0  0  0  0  0  0  0  0  0  0  0  0
  1  2  2  0  0  0  0
  1 11  1  0  0  0  0
  1  8  1  0  0  0  0
  2  3  1  0  0  0  0
  3  4  2  0  0  0  0
  4  5  1  0  0  0  0
  4  6  1  0  0  0  0
  6  8  2  0  0  0  0
  6  7  1  0  0  0  0
  8  9  1  0  0  0  0
 10 11  2  0  0  0  0
 11 12  1  0  0  0  0
M  END
>  <COMPND>
    UNNAMED

>  <AUTHOR>
    GENERATED BY OPEN BABEL 2.4.90

>  <MASTER>
        0    0    0    0    0    0    0    0   12    0   12    0

