__1yfw_A_rec_1yfw_4aa_lig_docked.pdb
 OpenBabel10171920023D

 12 12  0  0  0  0  0  0  0  0999 V2000
    8.9390   25.5900    5.9070 C   0  0  0  0  0  0  0  0  0  0  0  0
    9.7710   26.4420    5.1870 C   0  0  0  0  0  0  0  0  0  0  0  0
   11.1200   26.1360    5.0210 C   0  0  0  0  0  0  0  0  0  0  0  0
   11.6390   24.9690    5.5760 C   0  0  0  0  0  0  0  0  0  0  0  0
   13.3180   24.5860    5.3950 Cl  0  0  0  0  0  0  0  0  0  0  0  0
   10.8100   24.1140    6.2930 C   0  0  0  0  0  0  0  0  0  0  0  0
   11.3160   22.9590    6.8040 O   0  0  0  0  0  0  0  0  0  0  0  0
    9.4640   24.4240    6.4630 C   0  0  0  0  0  0  0  0  0  0  0  0
    8.6850   23.6090    7.1690 N   0  0  0  0  0  0  0  0  0  0  0  0
    6.9150   25.8480    7.1820 O   0  0  0  0  0  0  0  0  0  0  0  0
    7.4560   25.9310    6.0810 C   0  0  0  0  0  0  0  0  0  0  0  0
    6.7830   26.2910    5.1160 O   0  0  0  0  0  0  0  0  0  0  0  0
  1  2  2  0  0  0  0
  1 11  1  0  0  0  0
  1  8  1  0  0  0  0
  2  3  1  0  0  0  0
  3  4  2  0  0  0  0
  4  5  1  0  0  0  0
  4  6  1  0  0  0  0
  6  8  2  0  0  0  0
  6  7  1  0  0  0  0
  8  9  1  0  0  0  0
 10 11  2  0  0  0  0
 11 12  1  0  0  0  0
M  END
>  <MODEL>
       1

>  <COMPND>
    UNNAMED

>  <AUTHOR>
    GENERATED BY OPEN BABEL 2.4.90

>  <MASTER>
        0    0    0    0    0    0    0    0   12    0   12    0

