__1yfy_A_rec_1yfy_3ha_lig_min.pdb
 OpenBabel10171920023D

 11 11  0  0  0  0  0  0  0  0999 V2000
    8.9620   25.5410    5.4780 C   0  0  0  0  0  0  0  0  0  0  0  0
    9.9580   26.2450    4.8080 C   0  0  0  0  0  0  0  0  0  0  0  0
   11.2810   25.8230    4.8750 C   0  0  0  0  0  0  0  0  0  0  0  0
   11.6110   24.6920    5.6170 C   0  0  0  0  0  0  0  0  0  0  0  0
   10.6160   23.9850    6.2850 C   0  0  0  0  0  0  0  0  0  0  0  0
   10.9440   22.8830    7.0110 O   0  0  0  0  0  0  0  0  0  0  0  0
    9.2930   24.4090    6.2160 C   0  0  0  0  0  0  0  0  0  0  0  0
    8.3480   23.7130    6.8430 N   0  0  0  0  0  0  0  0  0  0  0  0
    6.8700   26.1870    6.4680 O   0  0  0  0  0  0  0  0  0  0  0  0
    7.5180   26.0500    5.4310 C   0  0  0  0  0  0  0  0  0  0  0  0
    6.9870   26.3230    4.3570 O   0  0  0  0  0  0  0  0  0  0  0  0
  1  2  2  0  0  0  0
  1  7  1  0  0  0  0
  1 10  1  0  0  0  0
  2  3  1  0  0  0  0
  3  4  2  0  0  0  0
  4  5  1  0  0  0  0
  5  7  2  0  0  0  0
  5  6  1  0  0  0  0
  7  8  1  0  0  0  0
  9 10  2  0  0  0  0
 10 11  1  0  0  0  0
M  END
>  <COMPND>
    UNNAMED

>  <AUTHOR>
    GENERATED BY OPEN BABEL 2.4.90

>  <MASTER>
        0    0    0    0    0    0    0    0   11    0   11    0

