__1yfy_A_rec_1yfw_4aa_lig_docked.pdb
 OpenBabel10171920033D

 12 12  0  0  0  0  0  0  0  0999 V2000
    8.9210   25.5640    5.4730 C   0  0  0  0  0  0  0  0  0  0  0  0
    9.9310   26.2310    4.7850 C   0  0  0  0  0  0  0  0  0  0  0  0
   11.2420   25.7640    4.8300 C   0  0  0  0  0  0  0  0  0  0  0  0
   11.5460   24.6200    5.5640 C   0  0  0  0  0  0  0  0  0  0  0  0
   13.1740   24.0380    5.6450 Cl  0  0  0  0  0  0  0  0  0  0  0  0
   10.5380   23.9490    6.2480 C   0  0  0  0  0  0  0  0  0  0  0  0
   10.8360   22.8130    6.9360 O   0  0  0  0  0  0  0  0  0  0  0  0
    9.2300   24.4210    6.2070 C   0  0  0  0  0  0  0  0  0  0  0  0
    8.2790   23.7820    6.8840 N   0  0  0  0  0  0  0  0  0  0  0  0
    6.9470   26.3400    4.3370 O   0  0  0  0  0  0  0  0  0  0  0  0
    7.4810   26.0820    5.4140 C   0  0  0  0  0  0  0  0  0  0  0  0
    6.8370   26.2480    6.4490 O   0  0  0  0  0  0  0  0  0  0  0  0
  1  2  2  0  0  0  0
  1 11  1  0  0  0  0
  1  8  1  0  0  0  0
  2  3  1  0  0  0  0
  3  4  2  0  0  0  0
  4  5  1  0  0  0  0
  4  6  1  0  0  0  0
  6  8  2  0  0  0  0
  6  7  1  0  0  0  0
  8  9  1  0  0  0  0
 10 11  2  0  0  0  0
 11 12  1  0  0  0  0
M  END
>  <MODEL>
       1

>  <COMPND>
    UNNAMED

>  <AUTHOR>
    GENERATED BY OPEN BABEL 2.4.90

>  <MASTER>
        0    0    0    0    0    0    0    0   12    0   12    0

