__1yfy_A_rec_1yfy_3ha_lig_docked.pdb
 OpenBabel10171920023D

 11 11  0  0  0  0  0  0  0  0999 V2000
    8.9500   25.5380    5.4690 C   0  0  0  0  0  0  0  0  0  0  0  0
    9.9590   26.2440    4.8210 C   0  0  0  0  0  0  0  0  0  0  0  0
   11.2780   25.8080    4.8970 C   0  0  0  0  0  0  0  0  0  0  0  0
   11.5910   24.6630    5.6240 C   0  0  0  0  0  0  0  0  0  0  0  0
   10.5820   23.9550    6.2700 C   0  0  0  0  0  0  0  0  0  0  0  0
   10.8920   22.8380    6.9810 O   0  0  0  0  0  0  0  0  0  0  0  0
    9.2640   24.3900    6.1930 C   0  0  0  0  0  0  0  0  0  0  0  0
    8.3060   23.6940    6.7980 N   0  0  0  0  0  0  0  0  0  0  0  0
    6.8680   26.2280    6.4500 O   0  0  0  0  0  0  0  0  0  0  0  0
    7.5110   26.0590    5.4150 C   0  0  0  0  0  0  0  0  0  0  0  0
    6.9790   26.3110    4.3360 O   0  0  0  0  0  0  0  0  0  0  0  0
  1  2  2  0  0  0  0
  1  7  1  0  0  0  0
  1 10  1  0  0  0  0
  2  3  1  0  0  0  0
  3  4  2  0  0  0  0
  4  5  1  0  0  0  0
  5  7  2  0  0  0  0
  5  6  1  0  0  0  0
  7  8  1  0  0  0  0
  9 10  2  0  0  0  0
 10 11  1  0  0  0  0
M  END
>  <MODEL>
       6

>  <COMPND>
    UNNAMED

>  <AUTHOR>
    GENERATED BY OPEN BABEL 2.4.90

>  <MASTER>
        0    0    0    0    0    0    0    0   11    0   11    0

