__4hsj_A_rec_1yfw_4aa_lig_min.pdb
 OpenBabel10171920023D

 12 12  0  0  0  0  0  0  0  0999 V2000
    8.8700   25.0640    5.9530 C   0  0  0  0  0  0  0  0  0  0  0  0
    9.6610   25.6210    4.9520 C   0  0  0  0  0  0  0  0  0  0  0  0
   10.9500   25.1460    4.7260 C   0  0  0  0  0  0  0  0  0  0  0  0
   11.4530   24.1070    5.5040 C   0  0  0  0  0  0  0  0  0  0  0  0
   13.0610   23.5200    5.2490 Cl  0  0  0  0  0  0  0  0  0  0  0  0
   10.6640   23.5460    6.5030 C   0  0  0  0  0  0  0  0  0  0  0  0
   11.1480   22.5080    7.2370 O   0  0  0  0  0  0  0  0  0  0  0  0
    9.3770   24.0250    6.7310 C   0  0  0  0  0  0  0  0  0  0  0  0
    8.6410   23.4940    7.7030 N   0  0  0  0  0  0  0  0  0  0  0  0
    6.7020   25.8330    5.2470 O   0  0  0  0  0  0  0  0  0  0  0  0
    7.4510   25.5880    6.1910 C   0  0  0  0  0  0  0  0  0  0  0  0
    7.0400   25.7740    7.3360 O   0  0  0  0  0  0  0  0  0  0  0  0
  1  2  2  0  0  0  0
  1 11  1  0  0  0  0
  1  8  1  0  0  0  0
  2  3  1  0  0  0  0
  3  4  2  0  0  0  0
  4  5  1  0  0  0  0
  4  6  1  0  0  0  0
  6  8  2  0  0  0  0
  6  7  1  0  0  0  0
  8  9  1  0  0  0  0
 10 11  2  0  0  0  0
 11 12  1  0  0  0  0
M  END
>  <COMPND>
    UNNAMED

>  <AUTHOR>
    GENERATED BY OPEN BABEL 2.4.90

>  <MASTER>
        0    0    0    0    0    0    0    0   12    0   12    0

