__4hsj_A_rec_4hsl_3ha_lig_min.pdb
 OpenBabel10171920023D

 11 11  0  0  0  0  0  0  0  0999 V2000
    8.7110   25.3790    5.8180 C   0  0  0  0  0  0  0  0  0  0  0  0
    9.7160   26.0670    5.1510 C   0  0  0  0  0  0  0  0  0  0  0  0
   11.0440   25.6290    5.1910 C   0  0  0  0  0  0  0  0  0  0  0  0
   11.4670   24.4960    5.8560 C   0  0  0  0  0  0  0  0  0  0  0  0
   10.5300   23.7460    6.5480 C   0  0  0  0  0  0  0  0  0  0  0  0
   10.9890   22.6550    7.2150 O   0  0  0  0  0  0  0  0  0  0  0  0
    9.0700   24.1510    6.5590 C   0  0  0  0  0  0  0  0  0  0  0  0
    8.0940   23.4620    7.2160 N   0  0  0  0  0  0  0  0  0  0  0  0
    6.6320   25.9020    6.7850 O   0  0  0  0  0  0  0  0  0  0  0  0
    7.2890   25.8100    5.7440 C   0  0  0  0  0  0  0  0  0  0  0  0
    6.8070   25.9430    4.6360 O   0  0  0  0  0  0  0  0  0  0  0  0
  1  2  2  0  0  0  0
  1 10  1  0  0  0  0
  1  7  1  0  0  0  0
  2  3  1  0  0  0  0
  3  4  2  0  0  0  0
  4  5  1  0  0  0  0
  5  7  2  0  0  0  0
  5  6  1  0  0  0  0
  7  8  1  0  0  0  0
  9 10  2  0  0  0  0
 10 11  1  0  0  0  0
M  END
>  <COMPND>
    UNNAMED

>  <AUTHOR>
    GENERATED BY OPEN BABEL 2.4.90

>  <MASTER>
        0    0    0    0    0    0    0    0   11    0   11    0

