__4hsl_A_rec_4hsl_3ha_lig_min.pdb
 OpenBabel10171920023D

 11 11  0  0  0  0  0  0  0  0999 V2000
    8.9310   25.8180    6.0960 C   0  0  0  0  0  0  0  0  0  0  0  0
    9.8520   26.7120    5.5670 C   0  0  0  0  0  0  0  0  0  0  0  0
   11.2260   26.4620    5.6350 C   0  0  0  0  0  0  0  0  0  0  0  0
   11.7820   25.3310    6.1940 C   0  0  0  0  0  0  0  0  0  0  0  0
   10.9360   24.3820    6.7470 C   0  0  0  0  0  0  0  0  0  0  0  0
   11.5210   23.2950    7.3160 O   0  0  0  0  0  0  0  0  0  0  0  0
    9.4330   24.5750    6.7180 C   0  0  0  0  0  0  0  0  0  0  0  0
    8.5420   23.6850    7.2400 N   0  0  0  0  0  0  0  0  0  0  0  0
    6.7560   25.9040    6.9890 O   0  0  0  0  0  0  0  0  0  0  0  0
    7.4650   26.0520    5.9890 C   0  0  0  0  0  0  0  0  0  0  0  0
    7.0180   26.2700    4.8800 O   0  0  0  0  0  0  0  0  0  0  0  0
  1  2  2  0  0  0  0
  1 10  1  0  0  0  0
  1  7  1  0  0  0  0
  2  3  1  0  0  0  0
  3  4  2  0  0  0  0
  4  5  1  0  0  0  0
  5  7  2  0  0  0  0
  5  6  1  0  0  0  0
  7  8  1  0  0  0  0
  9 10  2  0  0  0  0
 10 11  1  0  0  0  0
M  END
>  <COMPND>
    UNNAMED

>  <AUTHOR>
    GENERATED BY OPEN BABEL 2.4.90

>  <MASTER>
        0    0    0    0    0    0    0    0   11    0   11    0

