__4hsl_A_rec_1yfy_3ha_lig_docked.pdb
 OpenBabel10171920023D

 11 11  0  0  0  0  0  0  0  0999 V2000
    8.8740   25.4490    6.0180 C   0  0  0  0  0  0  0  0  0  0  0  0
    9.7540   26.2720    5.3220 C   0  0  0  0  0  0  0  0  0  0  0  0
   11.0870   25.9030    5.1700 C   0  0  0  0  0  0  0  0  0  0  0  0
   11.5420   24.7060    5.7160 C   0  0  0  0  0  0  0  0  0  0  0  0
   10.6620   23.8810    6.4100 C   0  0  0  0  0  0  0  0  0  0  0  0
   11.1120   22.7140    6.9440 O   0  0  0  0  0  0  0  0  0  0  0  0
    9.3300   24.2510    6.5610 C   0  0  0  0  0  0  0  0  0  0  0  0
    8.4940   23.4450    7.2090 N   0  0  0  0  0  0  0  0  0  0  0  0
    6.7820   26.3750    5.2830 O   0  0  0  0  0  0  0  0  0  0  0  0
    7.4230   25.8960    6.2180 C   0  0  0  0  0  0  0  0  0  0  0  0
    6.8820   25.7860    7.3160 O   0  0  0  0  0  0  0  0  0  0  0  0
  1  2  2  0  0  0  0
  1  7  1  0  0  0  0
  1 10  1  0  0  0  0
  2  3  1  0  0  0  0
  3  4  2  0  0  0  0
  4  5  1  0  0  0  0
  5  7  2  0  0  0  0
  5  6  1  0  0  0  0
  7  8  1  0  0  0  0
  9 10  2  0  0  0  0
 10 11  1  0  0  0  0
M  END
>  <MODEL>
       1

>  <COMPND>
    UNNAMED

>  <AUTHOR>
    GENERATED BY OPEN BABEL 2.4.90

>  <MASTER>
        0    0    0    0    0    0    0    0   11    0   11    0

