__4hsl_A_rec_1yfw_4aa_lig_docked.pdb
 OpenBabel10171920023D

 12 12  0  0  0  0  0  0  0  0999 V2000
    8.7290   25.4770    6.0790 C   0  0  0  0  0  0  0  0  0  0  0  0
    9.5470   26.2800    5.2890 C   0  0  0  0  0  0  0  0  0  0  0  0
   10.8560   25.8940    5.0090 C   0  0  0  0  0  0  0  0  0  0  0  0
   11.3500   24.6970    5.5210 C   0  0  0  0  0  0  0  0  0  0  0  0
   12.9800   24.2140    5.1980 Cl  0  0  0  0  0  0  0  0  0  0  0  0
   10.5340   23.8910    6.3070 C   0  0  0  0  0  0  0  0  0  0  0  0
   11.0120   22.7060    6.7760 O   0  0  0  0  0  0  0  0  0  0  0  0
    9.2290   24.2810    6.5900 C   0  0  0  0  0  0  0  0  0  0  0  0
    8.4650   23.5120    7.3620 N   0  0  0  0  0  0  0  0  0  0  0  0
    6.8280   25.8180    7.5140 O   0  0  0  0  0  0  0  0  0  0  0  0
    7.2900   25.9070    6.3780 C   0  0  0  0  0  0  0  0  0  0  0  0
    6.5720   26.3460    5.4800 O   0  0  0  0  0  0  0  0  0  0  0  0
  1  2  2  0  0  0  0
  1 11  1  0  0  0  0
  1  8  1  0  0  0  0
  2  3  1  0  0  0  0
  3  4  2  0  0  0  0
  4  5  1  0  0  0  0
  4  6  1  0  0  0  0
  6  8  2  0  0  0  0
  6  7  1  0  0  0  0
  8  9  1  0  0  0  0
 10 11  2  0  0  0  0
 11 12  1  0  0  0  0
M  END
>  <MODEL>
       3

>  <COMPND>
    UNNAMED

>  <AUTHOR>
    GENERATED BY OPEN BABEL 2.4.90

>  <MASTER>
        0    0    0    0    0    0    0    0   12    0   12    0

