__4hvr_A_rec_1yfw_4aa_lig_docked.pdb
 OpenBabel10171920023D

 12 12  0  0  0  0  0  0  0  0999 V2000
    9.1060   25.1230    6.3870 C   0  0  0  0  0  0  0  0  0  0  0  0
    9.7060   26.3720    6.2540 C   0  0  0  0  0  0  0  0  0  0  0  0
   11.0930   26.4890    6.2350 C   0  0  0  0  0  0  0  0  0  0  0  0
   11.8870   25.3510    6.3460 C   0  0  0  0  0  0  0  0  0  0  0  0
   13.6130   25.4830    6.3440 Cl  0  0  0  0  0  0  0  0  0  0  0  0
   11.2910   24.1010    6.4760 C   0  0  0  0  0  0  0  0  0  0  0  0
   12.0720   22.9890    6.5500 O   0  0  0  0  0  0  0  0  0  0  0  0
    9.9050   23.9860    6.5000 C   0  0  0  0  0  0  0  0  0  0  0  0
    9.3470   22.7870    6.6460 N   0  0  0  0  0  0  0  0  0  0  0  0
    7.0080   24.3510    7.2760 O   0  0  0  0  0  0  0  0  0  0  0  0
    7.5790   25.0020    6.4030 C   0  0  0  0  0  0  0  0  0  0  0  0
    6.9030   25.5540    5.5370 O   0  0  0  0  0  0  0  0  0  0  0  0
  1  2  2  0  0  0  0
  1 11  1  0  0  0  0
  1  8  1  0  0  0  0
  2  3  1  0  0  0  0
  3  4  2  0  0  0  0
  4  5  1  0  0  0  0
  4  6  1  0  0  0  0
  6  8  2  0  0  0  0
  6  7  1  0  0  0  0
  8  9  1  0  0  0  0
 10 11  2  0  0  0  0
 11 12  1  0  0  0  0
M  END
>  <MODEL>
      12

>  <COMPND>
    UNNAMED

>  <AUTHOR>
    GENERATED BY OPEN BABEL 2.4.90

>  <MASTER>
        0    0    0    0    0    0    0    0   12    0   12    0

