__4hvr_A_rec_1yfy_3ha_lig_min.pdb
 OpenBabel10171920023D

 11 11  0  0  0  0  0  0  0  0999 V2000
    8.9900   25.0330    6.3820 C   0  0  0  0  0  0  0  0  0  0  0  0
    9.6690   26.2090    6.0800 C   0  0  0  0  0  0  0  0  0  0  0  0
   11.0590   26.2460    6.1220 C   0  0  0  0  0  0  0  0  0  0  0  0
   11.7740   25.1030    6.4700 C   0  0  0  0  0  0  0  0  0  0  0  0
   11.0950   23.9260    6.7700 C   0  0  0  0  0  0  0  0  0  0  0  0
   11.7970   22.8120    7.1110 O   0  0  0  0  0  0  0  0  0  0  0  0
    9.7060   23.8900    6.7260 C   0  0  0  0  0  0  0  0  0  0  0  0
    9.0700   22.7530    6.9950 N   0  0  0  0  0  0  0  0  0  0  0  0
    6.8340   24.4470    7.2660 O   0  0  0  0  0  0  0  0  0  0  0  0
    7.4580   25.0250    6.3780 C   0  0  0  0  0  0  0  0  0  0  0  0
    6.8340   25.5920    5.4830 O   0  0  0  0  0  0  0  0  0  0  0  0
  1  2  2  0  0  0  0
  1  7  1  0  0  0  0
  1 10  1  0  0  0  0
  2  3  1  0  0  0  0
  3  4  2  0  0  0  0
  4  5  1  0  0  0  0
  5  7  2  0  0  0  0
  5  6  1  0  0  0  0
  7  8  1  0  0  0  0
  9 10  2  0  0  0  0
 10 11  1  0  0  0  0
M  END
>  <COMPND>
    UNNAMED

>  <AUTHOR>
    GENERATED BY OPEN BABEL 2.4.90

>  <MASTER>
        0    0    0    0    0    0    0    0   11    0   11    0

