__4hvr_A_rec_1yfw_4aa_lig_min.pdb
 OpenBabel10171920023D

 12 12  0  0  0  0  0  0  0  0999 V2000
    9.0450   25.3630    6.3210 C   0  0  0  0  0  0  0  0  0  0  0  0
    9.6070   26.5640    5.8990 C   0  0  0  0  0  0  0  0  0  0  0  0
   10.9890   26.7370    5.9060 C   0  0  0  0  0  0  0  0  0  0  0  0
   11.8150   25.7000    6.3340 C   0  0  0  0  0  0  0  0  0  0  0  0
   13.5330   25.9060    6.3670 Cl  0  0  0  0  0  0  0  0  0  0  0  0
   11.2560   24.4970    6.7520 C   0  0  0  0  0  0  0  0  0  0  0  0
   12.0700   23.4770    7.1370 O   0  0  0  0  0  0  0  0  0  0  0  0
    9.8750   24.3290    6.7500 C   0  0  0  0  0  0  0  0  0  0  0  0
    9.3520   23.1810    7.1730 N   0  0  0  0  0  0  0  0  0  0  0  0
    6.8510   25.5780    5.3570 O   0  0  0  0  0  0  0  0  0  0  0  0
    7.5240   25.1800    6.3060 C   0  0  0  0  0  0  0  0  0  0  0  0
    6.9540   24.6320    7.2480 O   0  0  0  0  0  0  0  0  0  0  0  0
  1  2  2  0  0  0  0
  1 11  1  0  0  0  0
  1  8  1  0  0  0  0
  2  3  1  0  0  0  0
  3  4  2  0  0  0  0
  4  5  1  0  0  0  0
  4  6  1  0  0  0  0
  6  8  2  0  0  0  0
  6  7  1  0  0  0  0
  8  9  1  0  0  0  0
 10 11  2  0  0  0  0
 11 12  1  0  0  0  0
M  END
>  <COMPND>
    UNNAMED

>  <AUTHOR>
    GENERATED BY OPEN BABEL 2.4.90

>  <MASTER>
        0    0    0    0    0    0    0    0   12    0   12    0

