__4i3p_A_rec_4i3p_1cw_lig_min.pdb
 OpenBabel10171920023D

 11 11  0  0  0  0  0  0  0  0999 V2000
    8.5230   24.7630    6.2680 C   0  0  0  0  0  0  0  0  0  0  0  0
    9.0440   24.9960    7.5310 C   0  0  0  0  0  0  0  0  0  0  0  0
   10.1660   24.3020    7.9660 C   0  0  0  0  0  0  0  0  0  0  0  0
   10.8000   23.3760    7.1510 C   0  0  0  0  0  0  0  0  0  0  0  0
    9.1520   23.8160    5.4470 C   0  0  0  0  0  0  0  0  0  0  0  0
    8.6900   23.5450    4.1720 O   0  0  0  0  0  0  0  0  0  0  0  0
   10.2780   23.1250    5.8840 C   0  0  0  0  0  0  0  0  0  0  0  0
   10.8410   22.2220    5.0440 N   0  0  0  0  0  0  0  0  0  0  0  0
    7.2150   26.0310    4.5590 O   0  0  0  0  0  0  0  0  0  0  0  0
    7.3020   25.5240    5.8350 C   0  0  0  0  0  0  0  0  0  0  0  0
    6.1330   25.2810    6.5040 O   0  0  0  0  0  0  0  0  0  0  0  0
  1  5  2  0  0  0  0
  1 10  1  0  0  0  0
  1  2  1  0  0  0  0
  2  3  2  0  0  0  0
  3  4  1  0  0  0  0
  4  7  2  0  0  0  0
  5  6  1  0  0  0  0
  5  7  1  0  0  0  0
  7  8  1  0  0  0  0
  9 10  2  0  0  0  0
 10 11  1  0  0  0  0
M  END
>  <COMPND>
    UNNAMED

>  <AUTHOR>
    GENERATED BY OPEN BABEL 2.4.90

>  <MASTER>
        0    0    0    0    0    0    0    0   11    0   11    0

