__4i3p_A_rec_1yfw_4aa_lig_docked.pdb
 OpenBabel10171920033D

 12 12  0  0  0  0  0  0  0  0999 V2000
    8.8480   25.0260    6.2960 C   0  0  0  0  0  0  0  0  0  0  0  0
    9.7190   25.9370    5.7060 C   0  0  0  0  0  0  0  0  0  0  0  0
   11.0850   25.6730    5.6500 C   0  0  0  0  0  0  0  0  0  0  0  0
   11.5850   24.4880    6.1840 C   0  0  0  0  0  0  0  0  0  0  0  0
   13.2830   24.1540    6.1400 Cl  0  0  0  0  0  0  0  0  0  0  0  0
   10.7170   23.5730    6.7710 C   0  0  0  0  0  0  0  0  0  0  0  0
   11.2070   22.4020    7.2610 O   0  0  0  0  0  0  0  0  0  0  0  0
    9.3530   23.8420    6.8320 C   0  0  0  0  0  0  0  0  0  0  0  0
    8.5360   22.9680    7.4150 N   0  0  0  0  0  0  0  0  0  0  0  0
    6.7160   25.5660    5.3230 O   0  0  0  0  0  0  0  0  0  0  0  0
    7.3470   25.3220    6.3490 C   0  0  0  0  0  0  0  0  0  0  0  0
    6.7500   25.3220    7.4250 O   0  0  0  0  0  0  0  0  0  0  0  0
  1  2  2  0  0  0  0
  1 11  1  0  0  0  0
  1  8  1  0  0  0  0
  2  3  1  0  0  0  0
  3  4  2  0  0  0  0
  4  5  1  0  0  0  0
  4  6  1  0  0  0  0
  6  8  2  0  0  0  0
  6  7  1  0  0  0  0
  8  9  1  0  0  0  0
 10 11  2  0  0  0  0
 11 12  1  0  0  0  0
M  END
>  <MODEL>
       8

>  <COMPND>
    UNNAMED

>  <AUTHOR>
    GENERATED BY OPEN BABEL 2.4.90

>  <MASTER>
        0    0    0    0    0    0    0    0   12    0   12    0

