__4i3p_A_rec_4hsl_3ha_lig_min.pdb
 OpenBabel10171920023D

 11 11  0  0  0  0  0  0  0  0999 V2000
    8.6260   25.4940    6.0150 C   0  0  0  0  0  0  0  0  0  0  0  0
    9.5780   26.2640    5.3600 C   0  0  0  0  0  0  0  0  0  0  0  0
   10.9420   25.9710    5.4610 C   0  0  0  0  0  0  0  0  0  0  0  0
   11.4560   24.9100    6.1780 C   0  0  0  0  0  0  0  0  0  0  0  0
   10.5770   24.0870    6.8640 C   0  0  0  0  0  0  0  0  0  0  0  0
   11.1230   23.0710    7.5840 O   0  0  0  0  0  0  0  0  0  0  0  0
    9.0840   24.3350    6.8100 C   0  0  0  0  0  0  0  0  0  0  0  0
    8.1610   23.5670    7.4570 N   0  0  0  0  0  0  0  0  0  0  0  0
    6.4950   25.9640    6.8920 O   0  0  0  0  0  0  0  0  0  0  0  0
    7.1700   25.7690    5.8780 C   0  0  0  0  0  0  0  0  0  0  0  0
    6.6910   25.6760    4.7650 O   0  0  0  0  0  0  0  0  0  0  0  0
  1  2  2  0  0  0  0
  1 10  1  0  0  0  0
  1  7  1  0  0  0  0
  2  3  1  0  0  0  0
  3  4  2  0  0  0  0
  4  5  1  0  0  0  0
  5  7  2  0  0  0  0
  5  6  1  0  0  0  0
  7  8  1  0  0  0  0
  9 10  2  0  0  0  0
 10 11  1  0  0  0  0
M  END
>  <COMPND>
    UNNAMED

>  <AUTHOR>
    GENERATED BY OPEN BABEL 2.4.90

>  <MASTER>
        0    0    0    0    0    0    0    0   11    0   11    0

