__4wzc_A_rec_4hsl_3ha_lig_min.pdb
 OpenBabel10171920023D

 11 11  0  0  0  0  0  0  0  0999 V2000
    8.5570   25.2220    6.3620 C   0  0  0  0  0  0  0  0  0  0  0  0
    9.4220   26.1080    5.7350 C   0  0  0  0  0  0  0  0  0  0  0  0
   10.7930   25.8420    5.6460 C   0  0  0  0  0  0  0  0  0  0  0  0
   11.3940   24.7000    6.1350 C   0  0  0  0  0  0  0  0  0  0  0  0
   10.6040   23.7580    6.7750 C   0  0  0  0  0  0  0  0  0  0  0  0
   11.2360   22.6620    7.2700 O   0  0  0  0  0  0  0  0  0  0  0  0
    9.1110   23.9700    6.9180 C   0  0  0  0  0  0  0  0  0  0  0  0
    8.2730   23.0870    7.5330 N   0  0  0  0  0  0  0  0  0  0  0  0
    6.4880   25.2760    7.4810 O   0  0  0  0  0  0  0  0  0  0  0  0
    7.0910   25.4740    6.4220 C   0  0  0  0  0  0  0  0  0  0  0  0
    6.5340   25.7580    5.3800 O   0  0  0  0  0  0  0  0  0  0  0  0
  1  2  2  0  0  0  0
  1 10  1  0  0  0  0
  1  7  1  0  0  0  0
  2  3  1  0  0  0  0
  3  4  2  0  0  0  0
  4  5  1  0  0  0  0
  5  7  2  0  0  0  0
  5  6  1  0  0  0  0
  7  8  1  0  0  0  0
  9 10  2  0  0  0  0
 10 11  1  0  0  0  0
M  END
>  <COMPND>
    UNNAMED

>  <AUTHOR>
    GENERATED BY OPEN BABEL 2.4.90

>  <MASTER>
        0    0    0    0    0    0    0    0   11    0   11    0

